xflr5 v6.57

 Calculated polar for: NACA 642A015

 1 1 Reynolds number fixed          Mach number fixed         

 xtrf =   1.000 (top)        1.000 (bottom)
 Mach =   0.100     Re =     0.805 e 6     Ncrit =   9.000

  alpha     CL        CD       CDp       Cm    Top Xtr Bot Xtr   Cpmin    Chinge    XCp    
 ------- -------- --------- --------- -------- ------- ------- -------- --------- ---------
 -10.000  -1.0019   0.01752   0.01138  -0.0133  1.0000  0.0164  -5.4169   0.0000   0.0000   0.0000   0.2246
  -9.000  -0.9498   0.01577   0.00952  -0.0038  1.0000  0.0184  -4.7662   0.0000   0.0000   0.0000   0.2352
  -8.000  -0.8212   0.01365   0.00735  -0.0097  0.9731  0.0233  -3.8671   0.0000   0.0000   0.0000   0.2284
  -7.000  -0.7194   0.01216   0.00575  -0.0088  0.9062  0.0358  -3.1790   0.0000   0.0000   0.0000   0.2290
  -6.000  -0.6264   0.01087   0.00447  -0.0059  0.8480  0.0751  -2.5577   0.0000   0.0000   0.0000   0.2326
  -5.000  -0.5395   0.00870   0.00304  -0.0025  0.8054  0.2620  -1.9948   0.0000   0.0000   0.0000   0.2381
  -4.000  -0.4480   0.00699   0.00217   0.0005  0.7711  0.5092  -1.4587   0.0000   0.0000   0.0000   0.2446
  -3.000  -0.3381   0.00676   0.00191   0.0007  0.7408  0.5631  -0.9359   0.0000   0.0000   0.0000   0.2463
  -2.000  -0.2266   0.00664   0.00177   0.0008  0.7128  0.6077  -0.6065   0.0000   0.0000   0.0000   0.2479
  -1.000  -0.1134   0.00661   0.00165   0.0004  0.6850  0.6359  -0.5102   0.0000   0.0000   0.0000   0.2485
   0.000   0.0003   0.00657   0.00159  -0.0001  0.6601  0.6594  -0.4535   0.0000   0.0000   0.0000   0.4652
   1.000   0.1137   0.00658   0.00164  -0.0005  0.6365  0.6852  -0.5106   0.0000   0.0000   0.0000   0.2492
   2.000   0.2264   0.00666   0.00176  -0.0008  0.6071  0.7121  -0.6065   0.0000   0.0000   0.0000   0.2478
   3.000   0.3376   0.00677   0.00191  -0.0007  0.5627  0.7414  -0.9345   0.0000   0.0000   0.0000   0.2460
   5.000   0.5391   0.00874   0.00306   0.0026  0.2567  0.8057  -1.9913   0.0000   0.0000   0.0000   0.2380
   6.000   0.6262   0.01090   0.00450   0.0059  0.0735  0.8476  -2.5504   0.0000   0.0000   0.0000   0.2327
   8.000   0.8192   0.01391   0.00766   0.0100  0.0248  0.9742  -3.8455   0.0000   0.0000   0.0000   0.2280
   9.000   0.9442   0.01599   0.00981   0.0048  0.0195  1.0000  -4.7184   0.0000   0.0000   0.0000   0.2341
  10.000   0.9898   0.01817   0.01210   0.0151  0.0178  1.0000  -5.3114   0.0000   0.0000   0.0000   0.2226
  11.000   1.0464   0.02108   0.01520   0.0213  0.0165  1.0000  -5.9731   0.0000   0.0000   0.0000   0.2160
  12.000   1.0941   0.02539   0.01969   0.0262  0.0156  1.0000  -6.6109   0.0000   0.0000   0.0000   0.2109
  13.000   1.1331   0.03104   0.02565   0.0300  0.0151  1.0000  -7.1804   0.0000   0.0000   0.0000   0.2065
  14.000   1.1661   0.03766   0.03265   0.0325  0.0145  1.0000  -7.8910   0.0000   0.0000   0.0000   0.2033
  15.000   1.1858   0.04603   0.04141   0.0333  0.0138  1.0000  -8.6556   0.0000   0.0000   0.0000   0.2011


