xflr5 v6.57

 Calculated polar for: NACA 642A015_refined_250

 1 1 Reynolds number fixed          Mach number fixed         

 xtrf =   1.000 (top)        1.000 (bottom)
 Mach =   0.100     Re =     0.805 e 6     Ncrit =   9.000

  alpha     CL        CD       CDp       Cm    Top Xtr Bot Xtr   Cpmin    Chinge    XCp    
 ------- -------- --------- --------- -------- ------- ------- -------- --------- ---------
 -10.000  -0.9867   0.01828   0.01225  -0.0158  1.0000  0.0189  -5.2586   0.0000   0.0000   0.0000   0.2218
  -9.000  -0.9379   0.01626   0.01014  -0.0060  1.0000  0.0209  -4.6476   0.0000   0.0000   0.0000   0.2327
  -8.000  -0.8177   0.01400   0.00777  -0.0104  0.9761  0.0254  -3.8250   0.0000   0.0000   0.0000   0.2275
  -7.000  -0.7198   0.01220   0.00585  -0.0088  0.9085  0.0373  -3.1720   0.0000   0.0000   0.0000   0.2289
  -6.000  -0.6274   0.01090   0.00450  -0.0057  0.8497  0.0740  -2.5471   0.0000   0.0000   0.0000   0.2330
  -5.000  -0.5405   0.00878   0.00307  -0.0023  0.8073  0.2586  -1.9732   0.0000   0.0000   0.0000   0.2386
  -4.000  -0.4489   0.00703   0.00218   0.0007  0.7729  0.5096  -1.4513   0.0000   0.0000   0.0000   0.2450
  -3.000  -0.3386   0.00681   0.00190   0.0009  0.7426  0.5640  -0.9391   0.0000   0.0000   0.0000   0.2466
  -2.000  -0.2271   0.00669   0.00175   0.0009  0.7141  0.6091  -0.6068   0.0000   0.0000   0.0000   0.2484
  -1.000  -0.1140   0.00663   0.00164   0.0006  0.6871  0.6385  -0.5103   0.0000   0.0000   0.0000   0.2495
   1.000   0.1140   0.00663   0.00164  -0.0006  0.6385  0.6871  -0.5102   0.0000   0.0000   0.0000   0.2495
   2.000   0.2272   0.00669   0.00175  -0.0009  0.6092  0.7141  -0.6067   0.0000   0.0000   0.0000   0.2484
   3.000   0.3386   0.00681   0.00190  -0.0009  0.5641  0.7426  -0.9387   0.0000   0.0000   0.0000   0.2466
   4.000   0.4490   0.00703   0.00218  -0.0007  0.5096  0.7728  -1.4537   0.0000   0.0000   0.0000   0.2450
   5.000   0.5405   0.00878   0.00307   0.0023  0.2584  0.8072  -1.9719   0.0000   0.0000   0.0000   0.2386
   6.000   0.6275   0.01090   0.00450   0.0057  0.0741  0.8497  -2.5409   0.0000   0.0000   0.0000   0.2330
   7.000   0.7199   0.01220   0.00585   0.0087  0.0373  0.9085  -3.1698   0.0000   0.0000   0.0000   0.2290
   8.000   0.8181   0.01397   0.00775   0.0103  0.0255  0.9760  -3.8308   0.0000   0.0000   0.0000   0.2275
   9.000   0.9370   0.01630   0.01017   0.0061  0.0210  1.0000  -4.6410   0.0000   0.0000   0.0000   0.2326
  10.000   0.9874   0.01826   0.01222   0.0156  0.0189  1.0000  -5.2660   0.0000   0.0000   0.0000   0.2219
  11.000   1.0389   0.02157   0.01573   0.0224  0.0176  1.0000  -5.8823   0.0000   0.0000   0.0000   0.2148
  12.000   1.0917   0.02557   0.01996   0.0268  0.0166  1.0000  -6.5354   0.0000   0.0000   0.0000   0.2102
  13.000   1.1336   0.03096   0.02555   0.0304  0.0158  1.0000  -7.1892   0.0000   0.0000   0.0000   0.2062
  14.000   1.1623   0.03801   0.03299   0.0334  0.0152  1.0000  -7.7363   0.0000   0.0000   0.0000   0.2024
  15.000   1.1790   0.04669   0.04212   0.0345  0.0147  1.0000  -8.2819   0.0000   0.0000   0.0000   0.1999


