xflr5 v6.57

 Calculated polar for: NACA 642A015_less panels

 1 1 Reynolds number fixed          Mach number fixed         

 xtrf =   1.000 (top)        1.000 (bottom)
 Mach =   0.100     Re =     0.805 e 6     Ncrit =   9.000

  alpha     CL        CD       CDp       Cm    Top Xtr Bot Xtr   Cpmin    Chinge    XCp    
 ------- -------- --------- --------- -------- ------- ------- -------- --------- ---------
 -10.000  -0.9644   0.02066   0.01541  -0.0197  1.0000  0.0150  -4.9599   0.0000   0.0000   0.0000   0.2179
  -9.000  -0.9353   0.01642   0.01064  -0.0068  1.0000  0.0151  -4.6408   0.0000   0.0000   0.0000   0.2323
  -8.000  -0.8149   0.01389   0.00802  -0.0112  0.9717  0.0220  -3.8889   0.0000   0.0000   0.0000   0.2269
  -7.000  -0.7099   0.01286   0.00687  -0.0109  0.8995  0.0251  -3.0704   0.0000   0.0000   0.0000   0.2263
  -6.000  -0.6231   0.01087   0.00442  -0.0065  0.8394  0.0553  -2.4889   0.0000   0.0000   0.0000   0.2321
  -5.000  -0.5286   0.00925   0.00326  -0.0043  0.8009  0.1751  -1.8496   0.0000   0.0000   0.0000   0.2352
  -4.000  -0.4433   0.00698   0.00217  -0.0006  0.7670  0.4767  -1.4187   0.0000   0.0000   0.0000   0.2428
  -3.000  -0.3371   0.00665   0.00190   0.0005  0.7316  0.5567  -0.9831   0.0000   0.0000   0.0000   0.2460
  -2.000  -0.2256   0.00648   0.00179   0.0006  0.7079  0.6028  -0.6123   0.0000   0.0000   0.0000   0.2474
  -1.000  -0.1133   0.00660   0.00173   0.0004  0.6744  0.6255  -0.5135   0.0000   0.0000   0.0000   0.2490
   0.000   0.0000   0.00640   0.00164   0.0000  0.6560  0.6560  -0.4576   0.0000   0.0000   0.0000   0.0275
   1.000   0.1133   0.00660   0.00173  -0.0004  0.6255  0.6744  -0.5134   0.0000   0.0000   0.0000   0.2490
   2.000   0.2257   0.00648   0.00179  -0.0006  0.6029  0.7079  -0.6129   0.0000   0.0000   0.0000   0.2474
   3.000   0.3372   0.00665   0.00190  -0.0005  0.5580  0.7316  -0.9854   0.0000   0.0000   0.0000   0.2461
   4.000   0.4448   0.00691   0.00218   0.0003  0.4925  0.7670  -1.4253   0.0000   0.0000   0.0000   0.2434
   5.000   0.5294   0.00919   0.00324   0.0042  0.1820  0.8009  -1.8446   0.0000   0.0000   0.0000   0.2354
   6.000   0.6232   0.01087   0.00443   0.0065  0.0546  0.8394  -2.4688   0.0000   0.0000   0.0000   0.2321
   7.000   0.7107   0.01282   0.00683   0.0108  0.0259  0.8993  -3.0557   0.0000   0.0000   0.0000   0.2265
   8.000   0.8086   0.01460   0.00893   0.0123  0.0224  0.9739  -3.8000   0.0000   0.0000   0.0000   0.2255
   9.000   0.9418   0.01612   0.01030   0.0057  0.0153  1.0000  -4.7030   0.0000   0.0000   0.0000   0.2336
  10.000   0.9705   0.02002   0.01467   0.0188  0.0148  1.0000  -5.0453   0.0000   0.0000   0.0000   0.2190
  11.000   1.0039   0.02935   0.02496   0.0278  0.0157  1.0000  -5.1457   0.0000   0.0000   0.0000   0.2094
  12.000   0.9626   0.04475   0.04148   0.0377  0.0172  1.0000  -4.8566   0.0000   0.0000   0.0000   0.1963
  13.000   0.8687   0.06574   0.06315   0.0365  0.0181  1.0000  -4.4483   0.0000   0.0000   0.0000   0.1911
  14.000   0.7417   0.10398   0.10197   0.0148  0.0187  1.0000  -3.6478   0.0000   0.0000   0.0000   0.2109
  15.000   0.6130   0.16122   0.15922  -0.0099  0.0227  1.0000  -1.8309   0.0000   0.0000   0.0000   0.2469


