xflr5 v6.57

 Calculated polar for: NACA 642A015_225

 1 1 Reynolds number fixed          Mach number fixed         

 xtrf =   1.000 (top)        1.000 (bottom)
 Mach =   0.100     Re =     0.805 e 6     Ncrit =   9.000

  alpha     CL        CD       CDp       Cm    Top Xtr Bot Xtr   Cpmin    Chinge    XCp    
 ------- -------- --------- --------- -------- ------- ------- -------- --------- ---------
 -10.000  -0.9840   0.01843   0.01242  -0.0161  1.0000  0.0186  -5.2171   0.0000   0.0000   0.0000   0.2214
  -9.000  -0.9415   0.01611   0.01000  -0.0054  1.0000  0.0205  -4.6679   0.0000   0.0000   0.0000   0.2334
  -8.000  -0.8182   0.01390   0.00771  -0.0104  0.9763  0.0256  -3.8435   0.0000   0.0000   0.0000   0.2275
  -7.000  -0.7196   0.01221   0.00586  -0.0088  0.9084  0.0369  -3.1578   0.0000   0.0000   0.0000   0.2289
  -6.000  -0.6276   0.01090   0.00450  -0.0056  0.8497  0.0743  -2.5440   0.0000   0.0000   0.0000   0.2330
  -5.000  -0.5402   0.00879   0.00308  -0.0023  0.8071  0.2566  -1.9857   0.0000   0.0000   0.0000   0.2385
  -4.000  -0.4490   0.00703   0.00218   0.0007  0.7731  0.5095  -1.4550   0.0000   0.0000   0.0000   0.2450
  -3.000  -0.3386   0.00681   0.00190   0.0009  0.7426  0.5637  -0.9376   0.0000   0.0000   0.0000   0.2466
  -2.000  -0.2271   0.00669   0.00175   0.0009  0.7140  0.6090  -0.6074   0.0000   0.0000   0.0000   0.2484
  -1.000  -0.1141   0.00664   0.00163   0.0006  0.6874  0.6383  -0.5104   0.0000   0.0000   0.0000   0.2497
   0.000   0.0000   0.00661   0.00159  -0.0000  0.6618  0.6617  -0.4530   0.0000   0.0000   0.0000   0.4499
   1.000   0.1141   0.00664   0.00163  -0.0006  0.6383  0.6874  -0.5104   0.0000   0.0000   0.0000   0.2497
   2.000   0.2271   0.00669   0.00175  -0.0009  0.6091  0.7140  -0.6075   0.0000   0.0000   0.0000   0.2484
   3.000   0.3387   0.00681   0.00190  -0.0009  0.5637  0.7426  -0.9400   0.0000   0.0000   0.0000   0.2466
   4.000   0.4490   0.00703   0.00218  -0.0007  0.5095  0.7730  -1.4510   0.0000   0.0000   0.0000   0.2451
   5.000   0.5402   0.00880   0.00308   0.0023  0.2560  0.8071  -1.9844   0.0000   0.0000   0.0000   0.2385
   6.000   0.6277   0.01090   0.00449   0.0056  0.0745  0.8497  -2.5465   0.0000   0.0000   0.0000   0.2330
   7.000   0.7197   0.01221   0.00586   0.0088  0.0368  0.9085  -3.1520   0.0000   0.0000   0.0000   0.2289
   8.000   0.8182   0.01391   0.00771   0.0104  0.0256  0.9763  -3.8390   0.0000   0.0000   0.0000   0.2275
   9.000   0.9364   0.01633   0.01024   0.0063  0.0212  1.0000  -4.6252   0.0000   0.0000   0.0000   0.2324
  10.000   0.9813   0.01861   0.01261   0.0166  0.0193  1.0000  -5.1907   0.0000   0.0000   0.0000   0.2209
  11.000   1.0336   0.02201   0.01623   0.0230  0.0181  1.0000  -5.8120   0.0000   0.0000   0.0000   0.2140
  12.000   1.0892   0.02582   0.02026   0.0271  0.0167  1.0000  -6.5183   0.0000   0.0000   0.0000   0.2099
  13.000   1.1255   0.03179   0.02645   0.0312  0.0157  1.0000  -7.1141   0.0000   0.0000   0.0000   0.2053
  14.000   1.1613   0.03813   0.03319   0.0334  0.0151  1.0000  -7.7477   0.0000   0.0000   0.0000   0.2025
  15.000   1.1765   0.04699   0.04249   0.0345  0.0146  1.0000  -8.4473   0.0000   0.0000   0.0000   0.1998


