xflr5 v6.57

 Calculated polar for: NACA 642A015_refined_200

 1 1 Reynolds number fixed          Mach number fixed         

 xtrf =   1.000 (top)        1.000 (bottom)
 Mach =   0.100     Re =     0.805 e 6     Ncrit =   9.000

  alpha     CL        CD       CDp       Cm    Top Xtr Bot Xtr   Cpmin    Chinge    XCp    
 ------- -------- --------- --------- -------- ------- ------- -------- --------- ---------
 -10.000  -0.9861   0.01833   0.01236  -0.0159  1.0000  0.0185  -5.2447   0.0000   0.0000   0.0000   0.2217
  -9.000  -0.9398   0.01618   0.01006  -0.0057  1.0000  0.0204  -4.6447   0.0000   0.0000   0.0000   0.2331
  -8.000  -0.8191   0.01387   0.00766  -0.0102  0.9754  0.0252  -3.8456   0.0000   0.0000   0.0000   0.2277
  -7.000  -0.7196   0.01220   0.00585  -0.0088  0.9082  0.0368  -3.1798   0.0000   0.0000   0.0000   0.2289
  -6.000  -0.6275   0.01089   0.00450  -0.0057  0.8495  0.0739  -2.5511   0.0000   0.0000   0.0000   0.2330
  -5.000  -0.5400   0.00880   0.00308  -0.0024  0.8069  0.2552  -1.9718   0.0000   0.0000   0.0000   0.2384
  -4.000  -0.4489   0.00702   0.00218   0.0007  0.7725  0.5094  -1.4496   0.0000   0.0000   0.0000   0.2450
  -3.000  -0.3384   0.00682   0.00190   0.0008  0.7426  0.5639  -0.9415   0.0000   0.0000   0.0000   0.2465
  -2.000  -0.2270   0.00669   0.00175   0.0009  0.7139  0.6090  -0.6071   0.0000   0.0000   0.0000   0.2483
  -1.000  -0.1139   0.00663   0.00163   0.0005  0.6869  0.6382  -0.5104   0.0000   0.0000   0.0000   0.2494
   0.000   0.0000   0.00661   0.00158  -0.0000  0.6617  0.6617  -0.4531   0.0000   0.0000   0.0000   0.4634
   1.000   0.1139   0.00663   0.00163  -0.0005  0.6382  0.6869  -0.5103   0.0000   0.0000   0.0000   0.2494
   2.000   0.2270   0.00669   0.00175  -0.0009  0.6090  0.7139  -0.6073   0.0000   0.0000   0.0000   0.2483
   3.000   0.3384   0.00682   0.00190  -0.0008  0.5639  0.7425  -0.9425   0.0000   0.0000   0.0000   0.2465
   4.000   0.4489   0.00702   0.00218  -0.0007  0.5093  0.7725  -1.4537   0.0000   0.0000   0.0000   0.2450
   5.000   0.5400   0.00880   0.00308   0.0024  0.2554  0.8069  -1.9659   0.0000   0.0000   0.0000   0.2384
   6.000   0.6275   0.01089   0.00449   0.0057  0.0738  0.8495  -2.5435   0.0000   0.0000   0.0000   0.2330
   7.000   0.7198   0.01220   0.00585   0.0088  0.0368  0.9082  -3.1762   0.0000   0.0000   0.0000   0.2289
   8.000   0.8193   0.01386   0.00766   0.0102  0.0252  0.9753  -3.8485   0.0000   0.0000   0.0000   0.2278
  10.000   0.9848   0.01842   0.01246   0.0161  0.0186  1.0000  -5.2330   0.0000   0.0000   0.0000   0.2215
  11.000   1.0420   0.02137   0.01559   0.0221  0.0173  1.0000  -5.9071   0.0000   0.0000   0.0000   0.2152
  12.000   1.0851   0.02615   0.02057   0.0273  0.0160  1.0000  -6.5146   0.0000   0.0000   0.0000   0.2096
  13.000   1.1282   0.03153   0.02628   0.0309  0.0155  1.0000  -7.1150   0.0000   0.0000   0.0000   0.2057
  14.000   1.1595   0.03836   0.03349   0.0334  0.0149  1.0000  -7.6537   0.0000   0.0000   0.0000   0.2023
  15.000   1.1727   0.04745   0.04302   0.0345  0.0144  1.0000  -8.1311   0.0000   0.0000   0.0000   0.1997


